Version 4
SHEET 1 1372 764
WIRE 224 96 192 96
WIRE 896 96 864 96
WIRE 400 112 336 112
WIRE 1088 112 1008 112
WIRE 224 128 208 128
WIRE 896 128 880 128
WIRE 400 160 400 112
WIRE 560 176 512 176
WIRE 832 176 816 176
WIRE 880 176 880 128
WIRE 880 176 832 176
WIRE 208 192 208 128
WIRE 208 192 160 192
WIRE 1088 208 1088 112
WIRE 1104 208 1088 208
WIRE 880 224 880 176
WIRE 896 224 880 224
WIRE 208 240 208 192
WIRE 224 240 208 240
WIRE 816 240 800 240
WIRE 864 240 864 96
WIRE 864 240 816 240
WIRE 1104 240 1008 240
WIRE 1248 240 1216 240
WIRE 1264 240 1248 240
WIRE 192 256 192 96
WIRE 192 256 128 256
WIRE 400 256 400 192
WIRE 400 256 336 256
WIRE 560 256 560 176
WIRE 896 256 880 256
WIRE 688 272 672 272
WIRE 704 272 688 272
WIRE 1104 272 1088 272
WIRE 832 320 816 320
WIRE 880 320 880 256
WIRE 880 320 832 320
WIRE 224 336 224 272
WIRE 224 336 160 336
WIRE 880 368 880 320
WIRE 896 368 880 368
WIRE 224 384 224 336
WIRE 1088 384 1088 272
WIRE 1088 384 1008 384
WIRE 560 400 560 288
WIRE 560 400 336 400
WIRE 864 400 864 240
WIRE 896 400 864 400
WIRE 192 416 192 256
WIRE 224 416 192 416
WIRE 208 528 208 496
WIRE 560 528 560 496
WIRE 896 528 896 496
FLAG 160 192 B
FLAG 128 256 A
FLAG 160 336 C
FLAG 208 496 A
FLAG 560 496 B
FLAG 896 496 C
FLAG 208 608 0
FLAG 560 608 0
FLAG 896 608 0
FLAG 688 272 F
FLAG 832 176 B
FLAG 816 240 A
FLAG 832 320 C
FLAG 1248 240 G
SYMBOL 74hct08 272 48 R0
SYMATTR InstName U1
SYMBOL 74hct08 272 192 R0
SYMATTR InstName U2
SYMBOL 74hct08 272 336 R0
SYMATTR InstName U3
SYMBOL voltage 208 512 R0
SYMATTR InstName V1
SYMATTR Value PULSE(5 0 0 1p 1p 1u 2u)
SYMBOL voltage 560 512 R0
SYMATTR InstName V2
SYMATTR Value PULSE(5 0 0 1p 1p 2u 4u)
SYMBOL voltage 896 512 R0
SYMATTR InstName V3
SYMATTR Value PULSE(5 0 0 1p 1p 4u 8u)
SYMBOL 74hct32 448 112 R0
SYMATTR InstName U4
SYMBOL 74hct32 608 208 R0
SYMATTR InstName U5
SYMBOL 74hct00 944 48 R0
SYMATTR InstName U6
SYMBOL 74hct00 944 176 R0
SYMATTR InstName U7
SYMBOL 74hct00 944 320 R0
SYMATTR InstName U8
SYMBOL 74hct10 1152 160 R0
SYMATTR InstName U9
TEXT 1184 688 Left 2 !.include 74hct.lib
TEXT 72 680 Left 2 !.tran 4u
TEXT 584 696 Left 2 ;Battula Venkata Sai Ankit
TEXT 232 32 Left 2 ;Using AND and OR components
TEXT 880 32 Left 2 ;Using NAND components
TEXT 640 -96 Left 2 ;Majority Circuit
TEXT 648 -48 Left 2 ;AB + BC + CA
TEXT 592 736 Left 3 ;2019AAPS0331H
LINE Normal 640 -80 800 -80 2
LINE Normal 208 48 576 48 2
LINE Normal 848 48 1168 48 2
RECTANGLE Normal 640 -64 804 -32 2
RECTANGLE Normal 560 676 880 760 2
