Version 4
SHEET 1 1356 768
WIRE -80 -880 -224 -880
WIRE 128 -880 -80 -880
WIRE -80 -784 -80 -880
WIRE -64 -784 -80 -784
WIRE 128 -768 48 -768
WIRE -80 -752 -224 -752
WIRE -64 -752 -80 -752
WIRE -80 -672 -80 -752
WIRE -64 -672 -80 -672
WIRE 128 -656 48 -656
WIRE -80 -640 -224 -640
WIRE -64 -640 -80 -640
WIRE -80 -560 -80 -640
WIRE -64 -560 -80 -560
WIRE 128 -544 48 -544
WIRE -64 -528 -224 -528
WIRE -592 -368 -592 -400
WIRE -240 -368 -240 -400
WIRE 96 -368 96 -400
WIRE 432 -368 432 -400
WIRE 160 -16 144 -16
WIRE 320 0 272 0
WIRE 144 16 144 -16
WIRE 144 16 48 16
WIRE 320 48 320 0
WIRE 704 64 432 64
WIRE 160 80 160 16
WIRE 160 80 48 80
WIRE -384 96 -448 96
WIRE -448 112 -448 96
WIRE -448 112 -544 112
WIRE -208 112 -272 112
WIRE -384 128 -432 128
WIRE 320 144 320 80
WIRE 320 144 48 144
WIRE 320 160 320 144
WIRE 272 192 272 0
WIRE 320 192 272 192
WIRE -432 208 -432 128
WIRE -432 208 -544 208
WIRE 432 208 432 176
WIRE 496 208 432 208
WIRE -432 224 -432 208
WIRE -384 224 -432 224
WIRE 704 224 608 224
WIRE -224 240 -272 240
WIRE -208 240 -224 240
WIRE 496 240 432 240
WIRE -448 256 -448 112
WIRE -384 256 -448 256
WIRE 160 272 160 80
WIRE 320 272 160 272
WIRE 432 288 432 240
WIRE 144 304 144 16
WIRE 320 304 144 304
WIRE -592 480 -592 448
WIRE -240 480 -240 448
WIRE 96 480 96 448
WIRE 432 480 432 448
FLAG 432 560 0
FLAG 432 448 D
FLAG -224 -880 B3
FLAG -224 -752 B2
FLAG -224 -640 B1
FLAG -224 -528 B0
FLAG 128 -880 G3
FLAG 128 -768 G2
FLAG 128 -656 G1
FLAG 128 -544 G0
FLAG -208 112 Sh
FLAG -224 240 Cout
FLAG -544 112 A
FLAG -544 208 B
FLAG 48 16 A
FLAG 48 80 B
FLAG 48 144 C
FLAG 704 64 Sf
FLAG 704 224 Cout
FLAG -592 448 A
FLAG -592 560 0
FLAG -240 560 0
FLAG 96 560 0
FLAG -240 448 B
FLAG 96 448 C
FLAG 432 -288 0
FLAG 432 -400 B3
FLAG -592 -400 B0
FLAG -592 -288 0
FLAG -240 -288 0
FLAG 96 -288 0
FLAG -240 -400 B1
FLAG 96 -400 B2
SYMBOL voltage 432 464 R0
SYMATTR InstName V4
SYMATTR Value PULSE(5 0 0 1p 1p 8u 16u)
SYMBOL 74hct86 -16 -608 R0
SYMATTR InstName U1
SYMBOL 74hct86 -16 -720 R0
SYMATTR InstName U2
SYMBOL 74hct86 -16 -832 R0
SYMATTR InstName U3
SYMBOL 74hct86 -336 48 R0
SYMATTR InstName U4
SYMBOL 74hct08 -336 176 R0
SYMATTR InstName U5
SYMBOL 74hct86 208 -64 R0
SYMATTR InstName U6
SYMBOL 74hct86 368 0 R0
SYMATTR InstName U7
SYMBOL 74hct08 368 112 R0
SYMATTR InstName U8
SYMBOL 74hct08 368 224 R0
SYMATTR InstName U9
SYMBOL 74hct32 544 160 R0
SYMATTR InstName U10
SYMBOL voltage -592 464 R0
SYMATTR InstName V1
SYMATTR Value PULSE(5 0 0 1p 1p 1u 2u)
SYMBOL voltage -240 464 R0
SYMATTR InstName V2
SYMATTR Value PULSE(5 0 0 1p 1p 2u 4u)
SYMBOL voltage 96 464 R0
SYMATTR InstName V3
SYMATTR Value PULSE(5 0 0 1p 1p 4u 8u)
SYMBOL voltage 432 -384 R0
SYMATTR InstName V5
SYMATTR Value PULSE(5 0 0 1p 1p 8u 16u)
SYMBOL voltage -592 -384 R0
SYMATTR InstName V6
SYMATTR Value PULSE(5 0 0 1p 1p 1u 2u)
SYMBOL voltage -240 -384 R0
SYMATTR InstName V7
SYMATTR Value PULSE(5 0 0 1p 1p 2u 4u)
SYMBOL voltage 96 -384 R0
SYMATTR InstName V8
SYMATTR Value PULSE(5 0 0 1p 1p 4u 8u)
TEXT 696 632 Left 2 !.include 74hct.lib
TEXT -672 600 Left 2 !.tran 16u
TEXT -96 648 Left 2 ;Battula Venkata Sai Ankit
TEXT -88 688 Left 3 ;2019AAPS0331H
TEXT -184 -952 Left 2 ;Binary to Gray Code Generator
TEXT -464 24 Left 2 ;Half Adder Circuit
TEXT 288 -112 Left 2 ;Full Adder Circuit
LINE Normal -640 -176 736 -176 2
RECTANGLE Normal -116 624 204 708 2
RECTANGLE Normal -112 -912 48 -480 2
RECTANGLE Normal -464 48 -288 304 2
RECTANGLE Normal 112 -64 640 352 2
